//	Data:      25/04/09 13:22:05
//	Program:   xcore

simulator lang=spectre
global 0 GndIO UccFIO3 gnd! UCCLAB! vdd! ELLR15_30_0_ GND ClockBS AGND GndA vddh! UccA AVDD
include "D:/xcad/src/spectre/models/SOI180_6M_1.8V/mosfet.scs" section=typ
include "D:/xcad/src/spectre/models/SOI180_6M_1.8V/cap.scs" section=ctyp
include "D:/xcad/src/spectre/models/SOI180_6M_1.8V/diode.scs" section=typ
include "D:/xcad/src/spectre/models/SOI180_6M_1.8V/res.scs" section=typ
include "D:/xcad/src/spectre/models/SOI180_6M_1.8V/veriloga.scs" section=typ
include "D:/xcad/src/spectre/spectre_soi180.opts"
include "D:/xcad/src/spectre/XCI2.cdl"
otemp options temp = 25
parameters spowera = 0

simulator lang=spice

x.I1804.I38 LongBus_20_5_ m_lab10801_51_ net8311_10_ buftd52C_UCCLAB
x.I1804.I37 LongBus_20_7_ m_lab10801_55_ net8311_8_ buftd52C_UCCLAB
x.I1804.I7 LongBus_20_2_ m_lab10801_45_ net8311_13_ buftd52C_UCCLAB
x.I1803.I33 LongBus_21_12_ m_lab40701_9_ net8320_3_ buftd52C_UCCLAB
x.I1803.I21 LongBus_21_9_ m_lab40701_3_ net8320_6_ buftd52C_UCCLAB
x.I1803.I22 LongBus_21_11_ m_lab40701_7_ net8320_4_ buftd52C_UCCLAB
x.I1803.I25 LongBus_21_10_ m_lab40701_5_ net8320_5_ buftd52C_UCCLAB
x.I1803.I30 LongBus_21_13_ m_lab40701_11_ net8320_2_ buftd52C_UCCLAB
x.I1803.I29 LongBus_21_15_ m_lab40701_15_ net8320_0_ buftd52C_UCCLAB
x.I1803.I26 LongBus_21_14_ m_lab40701_13_ net8320_1_ buftd52C_UCCLAB
x.I1803.I9 LongBus_21_3_ m_lab20801_47_ net8320_12_ buftd52C_UCCLAB
x.I3621.I152.I5 I3621_I152_net117 conf_umd_l_25_ net10329_2_ gnd! UCCLAB! invtd56_pd_clk_AVDD
x.I3621.I152.I13 I3621_I152_net159 I3621_LVDS_IN Fast_in_13_0_ net9202_2_ conf_umd_l_37_ conf_umd_l_38_ I3621_I152_net117 gnd! UCCLAB! mux4p_0_AVDD
x.I3739.I38 net8311_10_ m_lab10401_51_ LongBus_79_5_ buftd52C_UCCLAB
x.I3740.I21 net8320_6_ m_lab40301_3_ LongBus_78_9_ buftd52C_UCCLAB
x.I3740.I25 net8320_5_ m_lab40301_5_ LongBus_78_10_ buftd52C_UCCLAB
x.I3740.I30 net8320_2_ m_lab40301_11_ LongBus_78_13_ buftd52C_UCCLAB
x.I3740.I26 net8320_1_ m_lab40301_13_ LongBus_78_14_ buftd52C_UCCLAB
x.I3740.I9 net8320_12_ m_lab20401_47_ LongBus_78_3_ buftd52C_UCCLAB
x.I3740.I7 net8320_13_ m_lab20401_45_ LongBus_78_2_ buftd52C_UCCLAB
x.I3741.I41 net8296_11_ m_lab10404_49_ LongBus_73_4_ buftd52C_UCCLAB
x.I3741.I38 net8296_10_ m_lab10404_51_ LongBus_73_5_ buftd52C_UCCLAB
x.I3741.I25 net8296_5_ m_lab30304_5_ LongBus_73_10_ buftd52C_UCCLAB
x.I3742.I25 net8287_5_ m_lab40304_5_ LongBus_72_10_ buftd52C_UCCLAB
x.I3743.I7 net8299_13_ m_lab10405_45_ LongBus_71_2_ buftd52C_UCCLAB
x.I3590.I15 net10330_0_ net10329_0_ I3590_net055 I3590_net052 m_lab40506_9_ m_lab40506_4_ I3590_net66 mux4p_0_UCCLAB
x.I3590.I14 net10330_1_ net10329_1_ I3590_net062 I3590_net059 m_lab40506_10_ m_lab40506_3_ I3590_net72 mux4p_0_UCCLAB
x.I3590.I13 net10330_2_ net10329_2_ I3590_net069 I3590_net066 m_lab40506_8_ m_lab40506_5_ I3590_net78 mux4p_0_UCCLAB
x.I3590.I12 net10330_3_ net10329_3_ I3590_net076 I3590_net073 m_lab40506_7_ m_lab40506_6_ I3590_net84 mux4p_0_UCCLAB
x.I3590.I20 net10305_0_ net10255_0_ m_lab40506_11_ I3590_net059 mux2_1_clk_P_UCCLAB
x.I3590.I21 net10305_1_ net10255_1_ m_lab40506_12_ I3590_net052 mux2_1_clk_P_UCCLAB
x.I3590.I16 net10305_0_ net10255_0_ m_lab40506_14_ I3590_net073 mux2_1_clk_P_UCCLAB
x.I3590.I9 I3590_net66 m_lab40506_0_ net10262_3_ invtd56_pd_clk_UCCLAB
x.I3590.I7 I3590_net72 m_lab30507_0_ net10262_2_ invtd56_pd_clk_UCCLAB
x.I3590.I5 I3590_net78 m_lab40506_1_ net10262_1_ invtd56_pd_clk_UCCLAB
x.I3590.I0 I3590_net84 m_lab40506_2_ net10262_0_ invtd56_pd_clk_UCCLAB
x.I3690.I9 I3690_net35 m_lab10307_50_ net20974_3_ invtd56_pd_clk_UCCLAB
x.I3690.I7 I3690_net39 m_lab10307_51_ net20974_2_ invtd56_pd_clk_UCCLAB
x.I3690.I5 I3690_net43 m_lab10307_52_ net20974_1_ invtd56_pd_clk_UCCLAB
x.I3690.I0 I3690_net47 m_lab10307_53_ net20974_0_ invtd56_pd_clk_UCCLAB
x.I3690.I4 net10262_1_ net10281_1_ m_lab10307_48_ I3690_net43 mux2p_2_UCCLAB
x.I3690.I3 net10262_2_ net10281_0_ m_lab10307_47_ I3690_net39 mux2p_2_UCCLAB
x.I3690.I2 net10262_3_ net10281_1_ m_lab10307_46_ I3690_net35 mux2p_2_UCCLAB
x.I3690.I6 net10262_0_ net10281_0_ m_lab10307_49_ I3690_net47 mux2p_2_UCCLAB
x.I3689.I9 I3689_net35 m_lab10507_50_ net20977_3_ invtd56_pd_clk_UCCLAB
x.I3689.I7 I3689_net39 m_lab10507_51_ net20977_2_ invtd56_pd_clk_UCCLAB
x.I3689.I3 net10262_2_ net10281_0_ m_lab10507_47_ I3689_net39 mux2p_2_UCCLAB
x.I3689.I2 net10262_3_ net10281_1_ m_lab10507_46_ I3689_net35 mux2p_2_UCCLAB
x.I3687.I5 I3687_net43 m_lab10907_52_ net21016_1_ invtd56_pd_clk_UCCLAB
x.I3687.I4 net10262_1_ net10305_1_ m_lab10907_48_ I3687_net43 mux2p_2_UCCLAB
x.I3651.I4 net20974_3_ m_lab20204_55_ GCLK_s1_0_ invtd56_pd_clk_UCCLAB
x.I3651.I3 net20974_2_ m_lab20204_54_ GCLK_s1_1_ invtd56_pd_clk_UCCLAB
x.I3651.I2 net20974_1_ m_lab20204_53_ GCLK_s1_2_ invtd56_pd_clk_UCCLAB
x.I3652.I1 net20974_0_ m_lab30105_3_ net20955_0_ invtd56_pd_clk_UCCLAB
x.I3648.I4 net20977_3_ m_lab20404_36_ net16222_3_ invtd56_pd_clk_UCCLAB
x.I3648.I3 net20977_2_ m_lab20404_37_ net16222_2_ invtd56_pd_clk_UCCLAB
x.I3635.I2 net21016_1_ m_lab21004_53_ GCLK_s5_2_ invtd56_pd_clk_UCCLAB
x.ILAB0102.I5605.I5 ILAB0102_I5605_net25 ILAB0102_mc25_2_ ILAB0102_Clk_int_1_ invd16_seth_UCCLAB
x.ILAB0102.I5605.I1 ILAB0102_I5605_net29 ILAB0102_mc23_2_ ILAB0102_Clk_int_3_ invd16_seth_UCCLAB
x.ILAB0102.I5605.I4 ILAB0102_net027166 ILAB0102_net27191 ILAB0102_net015099 ILAB0102_I5605_net25 mux2p_2_UCCLAB
x.ILAB0102.I5605.I0 ILAB0102_net27188 ILAB0102_net015234 ILAB0102_net26879 ILAB0102_I5605_net29 mux2p_2_UCCLAB
x.ILAB0102.I5366.I63 ILAB0102_mc39_0_ ILAB0102_I5366_net0127 ILAB0102_I5366_net64 ILAB0102_I5366_net91 ILAB0102_nmc39_0_ switch2_clk
x.ILAB0102.I5366.I64 ILAB0102_mc39_1_ ILAB0102_I5366_net0124 ILAB0102_I5366_net0127 ILAB0102_I5366_net83 ILAB0102_nmc39_1_ switch2_clk
x.ILAB0102.I5366.I69 ILAB0102_mc41_1_ ILAB0102_I5366_net0104 ILAB0102_I5366_net0121 ILAB0102_I5366_net87 ILAB0102_nmc41_1_ switch2_clk
x.ILAB0102.I5366.I66 ILAB0102_mc41_0_ ILAB0102_I5366_net0121 ILAB0102_I5366_net68 ILAB0102_I5366_net95 ILAB0102_nmc41_0_ switch2_clk
x.ILAB0102.I5366.I0 ILAB0102_mc50_2_ GCLK_s1_0_ ILAB0102_I5366_net64 nand2_1_UCCLAB
x.ILAB0102.I5366.I72 ILAB0102_mc52_2_ GCLK_s1_2_ ILAB0102_I5366_net68 nand2_1_UCCLAB
x.ILAB0102.I5366.I74 ILAB0102_I5366_net0114 ILAB0102_net15299_3_ invd52_UCCLAB
x.ILAB0102.I5366.I75 ILAB0102_I5366_net0110 ILAB0102_net15299_2_ invd52_UCCLAB
x.ILAB0102.I5366.I76 ILAB0102_I5366_net0106 ILAB0102_net15299_1_ invd52_UCCLAB
x.ILAB0102.I5366.I77 ILAB0102_I5366_net0102 ILAB0102_net15299_0_ invd52_UCCLAB
x.ILAB0102.I5366.I79 ILAB0102_Clk_int_1_ ILAB0102_I5366_net0133 ILAB0102_mc51_2_ ILAB0102_I5366_net0110 mux2d1i_1_P_UCCLAB
x.ILAB0102.I5366.I80 ILAB0102_Clk_int_2_ ILAB0102_I5366_net0104 ILAB0102_mc52_2_ ILAB0102_I5366_net0106 mux2d1i_1_P_UCCLAB
x.ILAB0102.I5366.I81 ILAB0102_Clk_int_3_ ILAB0102_I5366_net0111 ILAB0102_mc53_2_ ILAB0102_I5366_net0102 mux2d1i_1_P_UCCLAB
x.ILAB0102.I5366.I78 ILAB0102_Clk_int_0_ ILAB0102_I5366_net0124 ILAB0102_mc50_2_ ILAB0102_I5366_net0114 mux2d1i_1_P_UCCLAB
x.ILAB0102.I5591.I3 ILAB0102_net15299_3_ ILAB0102_Clk_LAB_0_ invd32_UCCLAB
x.ILAB0102.I5591.I2 ILAB0102_net15299_2_ ILAB0102_Clk_LAB_1_ invd32_UCCLAB
x.ILAB0102.I5591.I1 ILAB0102_net15299_1_ ILAB0102_Clk_LAB_2_ invd32_UCCLAB
x.ILAB0102.I5591.I0 ILAB0102_net15299_0_ ILAB0102_Clk_LAB_3_ invd32_UCCLAB
x.ILAB0102.I227 ILAB0102_net26501 ILAB0102_net26898 ILAB0102_net027166 buftd4_UCCLAB
x.ILAB0102.I224 ILAB0102_net15476 ILAB0102_net26902 ILAB0102_net27188 buftd4_UCCLAB
x.ILAB0102.I4476 ILAB0102_net27514 ILAB0102_net27512 LongBus_73_15_ buftid52C_UCCLAB
x.ILAB0102.I4470 ILAB0102_net27532 ILAB0102_net27530 LongBus_73_11_ buftid52C_UCCLAB
x.ILAB0102.I4466 ILAB0102_net38005 ILAB0102_net27255 LongBus_72_1_ buftid52C_UCCLAB
x.ILAB0102.I4461 ILAB0102_net39286 ILAB0102_net27259 LongBus_72_11_ buftid52C_UCCLAB
x.ILAB0102.I4458 ILAB0102_net39976 ILAB0102_net27229 LongBus_72_14_ buftid52C_UCCLAB
x.ILAB0102.I4456 ILAB0102_net27574 ILAB0102_net27572 LongBus_73_14_ buftid52C_UCCLAB
x.ILAB0102.I4455 ILAB0102_net27577 ILAB0102_net27575 LongBus_73_12_ buftid52C_UCCLAB
x.ILAB0102.I4454 ILAB0102_net27580 ILAB0102_net27578 LongBus_73_13_ buftid52C_UCCLAB
x.ILAB0102.I4412 net17151_0_ ILAB0102_net38382 buf4_12_UCCLAB
x.ILAB0102.I4404 net10350_1_ ILAB0102_net27291 buf4_12_UCCLAB
x.ILAB0102.I4399 ILAB0102_net24386 ILAB0102_net38760 buf4_12_UCCLAB
x.ILAB0102.I4397 net10355_1_ ILAB0102_net27305 buf4_12_UCCLAB
x.ILAB0102.I4395 net17150_0_ ILAB0102_net39618 buf4_12_UCCLAB
x.ILAB0102.I4394 net17154_0_ ILAB0102_net38964 buf4_12_UCCLAB
x.ILAB0102.I4380 net10357_1_ ILAB0102_net27339 buf4_12_UCCLAB
x.ILAB0102.I4378 ILAB0102_net22856 ILAB0102_net37425 buf4_12_UCCLAB
x.ILAB0102.I4374 net17149_0_ ILAB0102_net39222 buf4_12_UCCLAB
x.ILAB0102.I4367 net17152_0_ ILAB0102_net39858 buf4_12_UCCLAB
x.ILAB0102.I4365 ILAB0102_net22001 ILAB0102_net39579 buf4_12_UCCLAB
x.ILAB0102.I4363 ILAB0102_net16421 ILAB0102_net40197 buf4_12_UCCLAB
x.ILAB0102.I4362 ILAB0102_net26726 ILAB0102_net40017 buf4_12_UCCLAB
x.ILAB0102.I4357 ILAB0102_net18266 ILAB0102_net38148 buf4_12_UCCLAB
x.ILAB0102.I4301 ILAB0102_net37425 ILAB0102_mu1_60_ ILAB0102_net40048 switch1
x.ILAB0102.I4221 ILAB0102_net27339 ILAB0102_mr2_59_ ILAB0102_net38005 switch1
x.ILAB0102.I4049 ILAB0102_net38148 ILAB0102_md9_57_ ILAB0102_net27474 switch1
x.ILAB0102.I3947 ILAB0102_net38760 ILAB0102_md3_53_ ILAB0102_net27483 switch1
x.ILAB0102.I3844 ILAB0102_net38382 ILAB0102_ml15_58_ ILAB0102_net27574 switch1
x.ILAB0102.I3825 ILAB0102_net27305 ILAB0102_mr15_57_ ILAB0102_net39976 switch1
x.ILAB0102.I3768 ILAB0102_net40017 ILAB0102_mu2_61_ ILAB0102_net37363 switch1
x.ILAB0102.I3702 ILAB0102_net39222 ILAB0102_ml16_56_ ILAB0102_net27514 switch1
x.ILAB0102.I3658 ILAB0102_net40197 ILAB0102_mu3_54_ ILAB0102_net39625 switch1
x.ILAB0102.I3603 ILAB0102_net39579 ILAB0102_md8_52_ ILAB0102_net27477 switch1
x.ILAB0102.I3551 ILAB0102_net39858 ILAB0102_ml12_59_ ILAB0102_net27532 switch1
x.ILAB0102.I3489 ILAB0102_net38964 ILAB0102_ml14_61_ ILAB0102_net27580 switch1
x.ILAB0102.I3482 ILAB0102_net39618 ILAB0102_ml13_57_ ILAB0102_net27577 switch1
x.ILAB0102.I3353 ILAB0102_net27291 ILAB0102_mr12_52_ ILAB0102_net39286 switch1
x.ILAB0102.I4442 ILAB0102_net37363 ILAB0102_mc34_2_ LongBus_0_1_ buftd52C_UCCLAB
x.ILAB0102.I4437 ILAB0102_net39625 ILAB0102_mc35_2_ LongBus_0_2_ buftd52C_UCCLAB
x.ILAB0102.I4435 ILAB0102_net40048 ILAB0102_mc33_2_ LongBus_0_0_ buftd52C_UCCLAB
x.ILAB0102.I4425 ILAB0102_net27474 ILAB0102_mc9_2_ LongBus_1_8_ buftd52C_UCCLAB
x.ILAB0102.I4424 ILAB0102_net27477 ILAB0102_mc8_2_ LongBus_1_7_ buftd52C_UCCLAB
x.ILAB0102.I4422 ILAB0102_net27483 ILAB0102_mc3_2_ LongBus_1_2_ buftd52C_UCCLAB
x.ILAB0102.I4773.I6 LongBus_0_2_ ILAB0102_mu17_low_4_ LongBus_72_2_ buftd52_UCCLAB
x.ILAB0102.I4775.I19 LongBus_1_8_ ILAB0102_md0_low_16_ LongBus_73_8_ buftd52_UCCLAB
x.ILAB0102.I4775.I5 LongBus_73_1_ ILAB0102_md0_low_3_ LongBus_1_1_ buftd52_UCCLAB
x.ILAB0102.I3194 LongBus_72_10_ ILAB0102_mr12_17_ ILAB0102_net21158 switch_ds
x.ILAB0102.I2582 LongBus_1_10_ ILAB0102_md7_15_ net18605_0_ switch_ds
x.ILAB0102.I2541 LongBus_72_10_ ILAB0102_mr3_17_ ILAB0102_net22463 switch_ds
x.ILAB0102.I2263 LongBus_73_5_ ILAB0102_ml14_32_ ILAB0102_net29756 switch_ds
x.ILAB0102.I1909 LongBus_73_10_ ILAB0102_ml15_17_ ILAB0102_net36815 switch_ds
x.ILAB0102.I1836 LongBus_73_10_ ILAB0102_ml10_15_ ILAB0102_net28301 switch_ds
x.ILAB0102.I1682 LongBus_73_10_ ILAB0102_ml4_17_ ILAB0102_net33446 switch_ds
x.ILAB0102.I1364 LongBus_73_10_ ILAB0102_ml5_17_ ILAB0102_net28388 switch_ds
x.ILAB0102.I1352 LongBus_1_1_ ILAB0102_md4_44_ net18608_2_ switch_ds
x.ILAB0102.I1316 LongBus_1_10_ ILAB0102_md8_15_ net18604_0_ switch_ds
x.ILAB0102.I849 LongBus_73_10_ ILAB0102_ml11_17_ ILAB0102_net29663 switch_ds
x.ILAB0102.I714 LongBus_1_5_ ILAB0102_md5_30_ net18607_0_ switch_ds
x.ILAB0102.I710 LongBus_72_10_ ILAB0102_mr7_17_ ILAB0102_net19268 switch_ds
x.ILAB0102.I688 LongBus_72_10_ ILAB0102_mr5_17_ ILAB0102_net16973 switch_ds
x.ILAB0102.I494 LongBus_73_10_ ILAB0102_ml6_17_ ILAB0102_net29558 switch_ds
x.ILAB0102.I429 LongBus_72_10_ ILAB0102_mr14_17_ ILAB0102_net17873 switch_ds
x.ILAB0102.I370 LongBus_73_10_ ILAB0102_ml13_16_ ILAB0102_net30917 switch_ds
x.ILAB0102.I302 LongBus_73_10_ ILAB0102_ml8_17_ ILAB0102_net35669 switch_ds
x.ILAB0102.ILE1607.Is60 ILAB0102_ILE1607_C ILAB0102_ILE1607_m_60_ ILAB0102_ILE1607_net01328 switch_ds
x.ILAB0102.ILE1607.Is94 ILAB0102_ILE1607_A ILAB0102_ILE1607_m_94_ ILAB0102_ILE1607_net0562 switch1_sd
x.ILAB0102.ILE1607.I666 ILAB0102_ILE1607_net2680 ILAB0102_net18266 inv_8_UCCLAB
x.ILAB0102.ILE1607.Is63 ILAB0102_ILE1607_m_63_ ILAB0102_ILE1607_net2680 ILAB0102_ILE1607_net0541 ILAB0102_ILE1607_net01328 ILAB0102_ILE1607_nm_63_ switch2
x.ILAB0102.ILE1607.Is133 ILAB0102_ILE1607_C ILAB0102_ILE1607_m_133_ net18568_0_ switch
x.ILAB0102.ILE1607.Is113 ILAB0102_ILE1607_A ILAB0102_ILE1607_m_113_ ILAB0102_net15347 switch
x.ILAB0102.ILE1607.I712 net18605_0_ ILAB0102_ILE1607_net0562 inv_4_UCCLAB
x.ILAB0102.ILE0308.Is44 ILAB0102_ILE0308_C ILAB0102_ILE0308_m_45_ ILAB0102_ILE0308_net2746 switch_ds
x.ILAB0102.ILE0308.Is41 ILAB0102_ILE0308_A ILAB0102_ILE0308_m_41_ ILAB0102_ILE0308_net2749 switch_ds
x.ILAB0102.ILE0308.Is3 ILAB0102_ILE0308_net2743 ILAB0102_ILE0308_m_3_ ILAB0102_Clk_LAB_0_ switch_sd_clk0
x.ILAB0102.ILE0308.Is120 ILAB0102_ILE0308_A ILAB0102_ILE0308_m_120_ Fast_out_28_0_ switch_sd
x.ILAB0102.ILE0308.ILE1 ILAB0102_ILE0308_net2749 ILAB0102_ILE0308_net2743 ILAB0102_ILE0308_net2746 ILAB0102_ILE0308_net2656 ILAB0102_ILE0308_net0541 ILAB0102_ILE0308_m_109_ ILAB0102_ILE0308_m_107_ ILAB0102_ILE0308_m_105_ ILAB0102_ILE0308_m_85_ ILAB0102_ILE0308_m_55_ ILAB0102_ILE0308_m_79_ ILAB0102_ILE0308_m_95_ ILAB0102_ILE0308_m_99_ ILAB0102_ILE0308_m_71_ ILAB0102_ILE0308_m_83_ ILAB0102_ILE0308_nm_75_ ILAB0102_ILE0308_nm_77_ ILAB0102_ILE0308_nm_97_ ILAB0102_ILE0308_nm_34_ ILAB0102_ILE0308_nm_101_ ILAB0102_ILE0308_nm_55_ ILAB0102_ILE0308_nm_79_ ILAB0102_ILE0308_nm_95_ ILAB0102_ILE0308_nm_71_ LE_4p0
x.ILAB0102.ILE0308.Iho1 ILAB0102_ILE0308_net1842 ILAB0102_ILE0308_net2685 ILAB0102_net15367 sw_b_v2_inv_UCCLAB
x.ILAB0102.ILE0308.Ivo1 ILAB0102_ILE0308_net1848 ILAB0102_ILE0308_net2660 ILAB0102_net21064 sw_b_v2_inv_UCCLAB
x.ILAB0102.ILE0308.Is23 ILAB0102_ILE0308_m_23_ ILAB0102_ILE0308_net2660 net10410_3_ ILAB0102_ILE0308_net2656 ILAB0102_ILE0308_nm_23_ switch2
x.ILAB0102.ILE0308.Is127 ILAB0102_ILE0308_m_127_ ILAB0102_ILE0308_net2685 ILAB0102_net16132 ILAB0102_ILE0308_net2656 ILAB0102_ILE0308_nm_127_ switch2
x.ILAB0102.ILE0308.Is13 ILAB0102_ILE0308_C ILAB0102_ILE0308_m_13_ ILAB0102_net23332 switch
x.ILAB0102.ILE1603.Is60 ILAB0102_ILE1603_C ILAB0102_ILE1603_m_60_ ILAB0102_ILE1603_net01328 switch_ds
x.ILAB0102.ILE1603.I666 ILAB0102_ILE1603_net2680 ILAB0102_net26501 inv_8_UCCLAB
x.ILAB0102.ILE1603.Is63 ILAB0102_ILE1603_m_63_ ILAB0102_ILE1603_net2680 ILAB0102_ILE1603_net0541 ILAB0102_ILE1603_net01328 ILAB0102_ILE1603_nm_63_ switch2
x.ILAB0102.ILE1603.Is117 ILAB0102_ILE1603_C ILAB0102_ILE1603_m_117_ ILAB0102_net15482 switch
x.ILAB0102.ILE0404.Is44 ILAB0102_ILE0404_C ILAB0102_ILE0404_m_45_ ILAB0102_ILE0404_net2746 switch_ds
x.ILAB0102.ILE0404.Is41 ILAB0102_ILE0404_A ILAB0102_ILE0404_m_41_ ILAB0102_ILE0404_net2749 switch_ds
x.ILAB0102.ILE0404.Is3 ILAB0102_ILE0404_net2743 ILAB0102_ILE0404_m_3_ ILAB0102_Clk_LAB_0_ switch_sd_clk0
x.ILAB0102.ILE0404.ILE1 ILAB0102_ILE0404_net2749 ILAB0102_ILE0404_net2743 ILAB0102_ILE0404_net2746 ILAB0102_ILE0404_net2656 ILAB0102_ILE0404_net0541 ILAB0102_ILE0404_m_109_ ILAB0102_ILE0404_m_107_ ILAB0102_ILE0404_m_105_ ILAB0102_ILE0404_m_85_ ILAB0102_ILE0404_m_55_ ILAB0102_ILE0404_m_79_ ILAB0102_ILE0404_m_95_ ILAB0102_ILE0404_m_99_ ILAB0102_ILE0404_m_71_ ILAB0102_ILE0404_m_83_ ILAB0102_ILE0404_nm_75_ ILAB0102_ILE0404_nm_77_ ILAB0102_ILE0404_nm_97_ ILAB0102_ILE0404_nm_34_ ILAB0102_ILE0404_nm_101_ ILAB0102_ILE0404_nm_55_ ILAB0102_ILE0404_nm_79_ ILAB0102_ILE0404_nm_95_ ILAB0102_ILE0404_nm_71_ LE_4p0
x.ILAB0102.ILE0404.Iho2 ILAB0102_ILE0404_net1836 ILAB0102_ILE0404_net2635 ILAB0102_net15548 sw_b_v2_inv_UCCLAB
x.ILAB0102.ILE0404.Ivi7 ILAB0102_ILE0404_net1860 ILAB0102_ILE0404_net1859 net10426_6_ sw_b_v2_inv_UCCLAB
x.ILAB0102.ILE0404.Ivo3 ILAB0102_ILE0404_net1869 ILAB0102_ILE0404_net2670 ILAB0102_net25020 sw_b_v2_inv_UCCLAB
x.ILAB0102.ILE0404.Is135 ILAB0102_ILE0404_m_135_ ILAB0102_ILE0404_net2635 ILAB0102_net20722 ILAB0102_ILE0404_net2656 ILAB0102_ILE0404_nm_135_ switch2
x.ILAB0102.ILE0404.Is7 ILAB0102_ILE0404_m_7_ ILAB0102_ILE0404_net2670 ILAB0102_net15572 ILAB0102_ILE0404_net2656 ILAB0102_ILE0404_nm_7_ switch2
x.ILAB0102.ILE0404.Is119 ILAB0102_ILE0404_m_119_ ILAB0102_ILE0404_net1859 ILAB0102_net25609 ILAB0102_ILE0404_net2656 ILAB0102_ILE0404_nm_119_ switch2
x.ILAB0102.ILE0404.Is129 ILAB0102_ILE0404_A ILAB0102_ILE0404_m_129_ Fast_out_28_4_ switch
x.ILAB0102.ILE0404.Is13 ILAB0102_ILE0404_C ILAB0102_ILE0404_m_13_ ILAB0102_net20722 switch
x.ILAB0102.ILE1203.Is37 ILAB0102_net15484 ILAB0102_ILE1203_m_37_ ILAB0102_net15593 switch
x.ILAB0102.ILE0703.Is44 ILAB0102_ILE0703_C ILAB0102_ILE0703_m_45_ ILAB0102_ILE0703_net2746 switch_ds
x.ILAB0102.ILE0703.Is41 ILAB0102_ILE0703_A ILAB0102_ILE0703_m_41_ ILAB0102_ILE0703_net2749 switch_ds
x.ILAB0102.ILE0703.Is3 ILAB0102_ILE0703_net2743 ILAB0102_ILE0703_m_3_ ILAB0102_Clk_LAB_0_ switch_sd_clk0
x.ILAB0102.ILE0703.Is20 ILAB0102_ILE0703_C ILAB0102_ILE0703_m_20_ ILAB0102_net20497 switch_sd
x.ILAB0102.ILE0703.I666 ILAB0102_ILE0703_net2680 ILAB0102_net26456 inv_8_UCCLAB
x.ILAB0102.ILE0703.ILE1 ILAB0102_ILE0703_net2749 ILAB0102_ILE0703_net2743 ILAB0102_ILE0703_net2746 ILAB0102_ILE0703_net2656 ILAB0102_ILE0703_net0541 ILAB0102_ILE0703_m_109_ ILAB0102_ILE0703_m_107_ ILAB0102_ILE0703_m_105_ ILAB0102_ILE0703_m_85_ ILAB0102_ILE0703_m_55_ ILAB0102_ILE0703_m_79_ ILAB0102_ILE0703_m_95_ ILAB0102_ILE0703_m_99_ ILAB0102_ILE0703_m_71_ ILAB0102_ILE0703_m_83_ ILAB0102_ILE0703_nm_75_ ILAB0102_ILE0703_nm_77_ ILAB0102_ILE0703_nm_97_ ILAB0102_ILE0703_nm_34_ ILAB0102_ILE0703_nm_101_ ILAB0102_ILE0703_nm_55_ ILAB0102_ILE0703_nm_79_ ILAB0102_ILE0703_nm_95_ ILAB0102_ILE0703_nm_71_ LE_4p0
x.ILAB0102.ILE0703.Ihi7 ILAB0102_ILE0703_net1886 ILAB0102_ILE0703_net1844 net17210_3_ sw_b_v2_inv_UCCLAB
x.ILAB0102.ILE0703.Ivi7 ILAB0102_ILE0703_net1860 ILAB0102_ILE0703_net1859 ILAB0102_net15709 sw_b_v2_inv_UCCLAB
x.ILAB0102.ILE0703.Ivo3 ILAB0102_ILE0703_net1869 ILAB0102_ILE0703_net2670 ILAB0102_net20340 sw_b_v2_inv_UCCLAB
x.ILAB0102.ILE0703.Is31 ILAB0102_ILE0703_m_31_ ILAB0102_ILE0703_net1844 ILAB0102_net15682 ILAB0102_ILE0703_net2656 ILAB0102_ILE0703_nm_31_ switch2
x.ILAB0102.ILE0703.Is7 ILAB0102_ILE0703_m_7_ ILAB0102_ILE0703_net2670 ILAB0102_net15707 ILAB0102_ILE0703_net2656 ILAB0102_ILE0703_nm_7_ switch2
x.ILAB0102.ILE0703.Is119 ILAB0102_ILE0703_m_119_ ILAB0102_ILE0703_net1859 ILAB0102_net16924 ILAB0102_ILE0703_net2656 ILAB0102_ILE0703_nm_119_ switch2
x.ILAB0102.ILE0703.Is63 ILAB0102_ILE0703_m_63_ ILAB0102_ILE0703_net2680 ILAB0102_ILE0703_net0541 ILAB0102_ILE0703_net01328 ILAB0102_ILE0703_nm_63_ switch2
x.ILAB0102.ILE0703.Is129 ILAB0102_ILE0703_A ILAB0102_ILE0703_m_129_ ILAB0102_net20344 switch
x.ILAB0102.ILE1505.Is139 ILAB0102_ILE1505_net2743 ILAB0102_ILE1505_m_139_ ILAB0102_Clk_LAB_3_ switch_sd_clk3
x.ILAB0102.ILE1505.Is44 ILAB0102_ILE1505_C ILAB0102_ILE1505_m_45_ ILAB0102_ILE1505_net2746 switch_ds
x.ILAB0102.ILE1505.Is41 ILAB0102_ILE1505_A ILAB0102_ILE1505_m_41_ ILAB0102_ILE1505_net2749 switch_ds
x.ILAB0102.ILE1505.ILE1 ILAB0102_ILE1505_net2749 ILAB0102_ILE1505_net2743 ILAB0102_ILE1505_net2746 ILAB0102_ILE1505_net2656 ILAB0102_ILE1505_net0541 ILAB0102_ILE1505_m_109_ ILAB0102_ILE1505_m_107_ ILAB0102_ILE1505_m_105_ ILAB0102_ILE1505_m_85_ ILAB0102_ILE1505_m_55_ ILAB0102_ILE1505_m_79_ ILAB0102_ILE1505_m_95_ ILAB0102_ILE1505_m_99_ ILAB0102_ILE1505_m_71_ ILAB0102_ILE1505_m_83_ ILAB0102_ILE1505_nm_75_ ILAB0102_ILE1505_nm_77_ ILAB0102_ILE1505_nm_97_ ILAB0102_ILE1505_nm_34_ ILAB0102_ILE1505_nm_101_ ILAB0102_ILE1505_nm_55_ ILAB0102_ILE1505_nm_79_ ILAB0102_ILE1505_nm_95_ ILAB0102_ILE1505_nm_71_ LE_4p0
x.ILAB0102.ILE1505.Ihi6 ILAB0102_ILE1505_net1878 ILAB0102_ILE1505_net1832 ILAB0102_net26347 sw_b_v2_inv_UCCLAB
x.ILAB0102.ILE1505.Is39 ILAB0102_ILE1505_m_39_ ILAB0102_ILE1505_net1832 ILAB0102_net15728 ILAB0102_ILE1505_net2656 ILAB0102_ILE1505_nm_39_ switch2
x.ILAB0102.ILE1505.Is133 ILAB0102_ILE1505_C ILAB0102_ILE1505_m_133_ ILAB0102_net15889 switch
x.ILAB0102.ILE1505.Is25 ILAB0102_ILE1505_A ILAB0102_ILE1505_m_25_ ILAB0102_net17708 switch
x.ILAB0102.ILE0605.Is44 ILAB0102_ILE0605_C ILAB0102_ILE0605_m_45_ ILAB0102_ILE0605_net2746 switch_ds
x.ILAB0102.ILE0605.Is41 ILAB0102_ILE0605_A ILAB0102_ILE0605_m_41_ ILAB0102_ILE0605_net2749 switch_ds
x.ILAB0102.ILE0605.Is3 ILAB0102_ILE0605_net2743 ILAB0102_ILE0605_m_3_ ILAB0102_Clk_LAB_0_ switch_sd_clk0
x.ILAB0102.ILE0605.Is32 ILAB0102_ILE0605_A ILAB0102_ILE0605_m_40_ ILAB0102_net25989 switch_sd
x.ILAB0102.ILE0605.ILE1 ILAB0102_ILE0605_net2749 ILAB0102_ILE0605_net2743 ILAB0102_ILE0605_net2746 ILAB0102_ILE0605_net2656 ILAB0102_ILE0605_net0541 ILAB0102_ILE0605_m_109_ ILAB0102_ILE0605_m_107_ ILAB0102_ILE0605_m_105_ ILAB0102_ILE0605_m_85_ ILAB0102_ILE0605_m_55_ ILAB0102_ILE0605_m_79_ ILAB0102_ILE0605_m_95_ ILAB0102_ILE0605_m_99_ ILAB0102_ILE0605_m_71_ ILAB0102_ILE0605_m_83_ ILAB0102_ILE0605_nm_75_ ILAB0102_ILE0605_nm_77_ ILAB0102_ILE0605_nm_97_ ILAB0102_ILE0605_nm_34_ ILAB0102_ILE0605_nm_101_ ILAB0102_ILE0605_nm_55_ ILAB0102_ILE0605_nm_79_ ILAB0102_ILE0605_nm_95_ ILAB0102_ILE0605_nm_71_ LE_4p0
x.ILAB0102.ILE0605.Ihi5 ILAB0102_ILE0605_net1900 ILAB0102_ILE0605_net1838 ILAB0102_net17663 sw_b_v2_inv_UCCLAB
x.ILAB0102.ILE0605.Ivi7 ILAB0102_ILE0605_net1860 ILAB0102_ILE0605_net1859 ILAB0102_net15799 sw_b_v2_inv_UCCLAB
x.ILAB0102.ILE0605.Is47 ILAB0102_ILE0605_m_47_ ILAB0102_ILE0605_net1838 ILAB0102_net15774 ILAB0102_ILE0605_net2656 ILAB0102_ILE0605_nm_47_ switch2
x.ILAB0102.ILE0605.Is119 ILAB0102_ILE0605_m_119_ ILAB0102_ILE0605_net1859 ILAB0102_net17824 ILAB0102_ILE0605_net2656 ILAB0102_ILE0605_nm_119_ switch2
x.ILAB0102.ILE0605.Is12 ILAB0102_ILE0605_C ILAB0102_ILE0605_m_12_ ILAB0102_net20587 switch
x.ILAB0102.ILE0705.Is44 ILAB0102_ILE0705_C ILAB0102_ILE0705_m_45_ ILAB0102_ILE0705_net2746 switch_ds
x.ILAB0102.ILE0705.Is41 ILAB0102_ILE0705_A ILAB0102_ILE0705_m_41_ ILAB0102_ILE0705_net2749 switch_ds
x.ILAB0102.ILE0705.Is3 ILAB0102_ILE0705_net2743 ILAB0102_ILE0705_m_3_ ILAB0102_Clk_LAB_0_ switch_sd_clk0
x.ILAB0102.ILE0705.ILE1 ILAB0102_ILE0705_net2749 ILAB0102_ILE0705_net2743 ILAB0102_ILE0705_net2746 ILAB0102_ILE0705_net2656 ILAB0102_ILE0705_net0541 ILAB0102_ILE0705_m_109_ ILAB0102_ILE0705_m_107_ ILAB0102_ILE0705_m_105_ ILAB0102_ILE0705_m_85_ ILAB0102_ILE0705_m_55_ ILAB0102_ILE0705_m_79_ ILAB0102_ILE0705_m_95_ ILAB0102_ILE0705_m_99_ ILAB0102_ILE0705_m_71_ ILAB0102_ILE0705_m_83_ ILAB0102_ILE0705_nm_75_ ILAB0102_ILE0705_nm_77_ ILAB0102_ILE0705_nm_97_ ILAB0102_ILE0705_nm_34_ ILAB0102_ILE0705_nm_101_ ILAB0102_ILE0705_nm_55_ ILAB0102_ILE0705_nm_79_ ILAB0102_ILE0705_nm_95_ ILAB0102_ILE0705_nm_71_ LE_4p0
x.ILAB0102.ILE0705.Iho2 ILAB0102_ILE0705_net1836 ILAB0102_ILE0705_net2635 ILAB0102_net15818 sw_b_v2_inv_UCCLAB
x.ILAB0102.ILE0705.Iho1 ILAB0102_ILE0705_net1842 ILAB0102_ILE0705_net2685 ILAB0102_net15817 sw_b_v2_inv_UCCLAB
x.ILAB0102.ILE0705.Ivo1 ILAB0102_ILE0705_net1848 ILAB0102_ILE0705_net2660 ILAB0102_net17959 sw_b_v2_inv_UCCLAB
x.ILAB0102.ILE0705.Is135 ILAB0102_ILE0705_m_135_ ILAB0102_ILE0705_net2635 ILAB0102_net26437 ILAB0102_ILE0705_net2656 ILAB0102_ILE0705_nm_135_ switch2
x.ILAB0102.ILE0705.Is23 ILAB0102_ILE0705_m_23_ ILAB0102_ILE0705_net2660 ILAB0102_net15844 ILAB0102_ILE0705_net2656 ILAB0102_ILE0705_nm_23_ switch2
x.ILAB0102.ILE0705.Is127 ILAB0102_ILE0705_m_127_ ILAB0102_ILE0705_net2685 ILAB0102_net20497 ILAB0102_ILE0705_net2656 ILAB0102_ILE0705_nm_127_ switch2
x.ILAB0102.ILE0705.Is129 ILAB0102_ILE0705_A ILAB0102_ILE0705_m_129_ ILAB0102_net17374 switch
x.ILAB0102.ILE0705.Is12 ILAB0102_ILE0705_C ILAB0102_ILE0705_m_12_ ILAB0102_net20497 switch
x.ILAB0102.ILE1605.Is43 ILAB0102_ILE1605_B ILAB0102_ILE1605_m_43_ ILAB0102_ILE1605_net2743 switch_ds
x.ILAB0102.ILE1605.Is44 ILAB0102_ILE1605_C ILAB0102_ILE1605_m_45_ ILAB0102_ILE1605_net2746 switch_ds
x.ILAB0102.ILE1605.Is41 ILAB0102_ILE1605_A ILAB0102_ILE1605_m_41_ ILAB0102_ILE1605_net2749 switch_ds
x.ILAB0102.ILE1605.Is26 ILAB0102_ILE1605_B ILAB0102_ILE1605_m_26_ ILAB0102_net25358 switch_sd
x.ILAB0102.ILE1605.Is94 ILAB0102_ILE1605_A ILAB0102_ILE1605_m_94_ ILAB0102_ILE1605_net0562 switch1_sd
x.ILAB0102.ILE1605.ILE1 ILAB0102_ILE1605_net2749 ILAB0102_ILE1605_net2743 ILAB0102_ILE1605_net2746 ILAB0102_ILE1605_net2656 ILAB0102_ILE1605_net0541 ILAB0102_ILE1605_m_109_ ILAB0102_ILE1605_m_107_ ILAB0102_ILE1605_m_105_ ILAB0102_ILE1605_m_85_ ILAB0102_ILE1605_m_55_ ILAB0102_ILE1605_m_79_ ILAB0102_ILE1605_m_95_ ILAB0102_ILE1605_m_99_ ILAB0102_ILE1605_m_71_ ILAB0102_ILE1605_m_83_ ILAB0102_ILE1605_nm_75_ ILAB0102_ILE1605_nm_77_ ILAB0102_ILE1605_nm_97_ ILAB0102_ILE1605_nm_34_ ILAB0102_ILE1605_nm_101_ ILAB0102_ILE1605_nm_55_ ILAB0102_ILE1605_nm_79_ ILAB0102_ILE1605_nm_95_ ILAB0102_ILE1605_nm_71_ LE_4p0
x.ILAB0102.ILE1605.Iho2 ILAB0102_ILE1605_net1836 ILAB0102_ILE1605_net2635 ILAB0102_net15863 sw_b_v2_inv_UCCLAB
x.ILAB0102.ILE1605.Ivi7 ILAB0102_ILE1605_net1860 ILAB0102_ILE1605_net1859 ILAB0102_net15889 sw_b_v2_inv_UCCLAB
x.ILAB0102.ILE1605.Iho3 ILAB0102_ILE1605_net1866 ILAB0102_ILE1605_net2650 ILAB0102_net15864 sw_b_v2_inv_UCCLAB
x.ILAB0102.ILE1605.Is135 ILAB0102_ILE1605_m_135_ ILAB0102_ILE1605_net2635 ILAB0102_net26482 ILAB0102_ILE1605_net2656 ILAB0102_ILE1605_nm_135_ switch2
x.ILAB0102.ILE1605.Is143 ILAB0102_ILE1605_m_143_ ILAB0102_ILE1605_net2650 ILAB0102_net15458 ILAB0102_ILE1605_net2656 ILAB0102_ILE1605_nm_143_ switch2
x.ILAB0102.ILE1605.Is119 ILAB0102_ILE1605_m_119_ ILAB0102_ILE1605_net1859 net18576_6_ ILAB0102_ILE1605_net2656 ILAB0102_ILE1605_nm_119_ switch2
x.ILAB0102.ILE1605.Is117 ILAB0102_ILE1605_C ILAB0102_ILE1605_m_117_ ILAB0102_net15887 switch
x.ILAB0102.ILE1605.Is13 ILAB0102_ILE1605_C ILAB0102_ILE1605_m_13_ ILAB0102_net26482 switch
x.ILAB0102.ILE1605.Is25 ILAB0102_ILE1605_A ILAB0102_ILE1605_m_25_ ILAB0102_net15458 switch
x.ILAB0102.ILE1605.Is53 net18576_5_ ILAB0102_ILE1605_m_53_ ILAB0102_net15864 switch
x.ILAB0102.ILE1605.Is37 net18576_6_ ILAB0102_ILE1605_m_37_ ILAB0102_net15863 switch
x.ILAB0102.ILE1605.I712 net18607_0_ ILAB0102_ILE1605_net0562 inv_4_UCCLAB
x.ILAB0102.ILE1305.Is43 ILAB0102_ILE1305_B ILAB0102_ILE1305_m_43_ ILAB0102_ILE1305_net2743 switch_ds
x.ILAB0102.ILE1305.Is44 ILAB0102_ILE1305_C ILAB0102_ILE1305_m_45_ ILAB0102_ILE1305_net2746 switch_ds
x.ILAB0102.ILE1305.Is41 ILAB0102_ILE1305_A ILAB0102_ILE1305_m_41_ ILAB0102_ILE1305_net2749 switch_ds
x.ILAB0102.ILE1305.Is124 ILAB0102_ILE1305_C ILAB0102_ILE1305_m_124_ ILAB0102_net15754 switch_sd
x.ILAB0102.ILE1305.ILE1 ILAB0102_ILE1305_net2749 ILAB0102_ILE1305_net2743 ILAB0102_ILE1305_net2746 ILAB0102_ILE1305_net2656 ILAB0102_ILE1305_net0541 ILAB0102_ILE1305_m_109_ ILAB0102_ILE1305_m_107_ ILAB0102_ILE1305_m_105_ ILAB0102_ILE1305_m_85_ ILAB0102_ILE1305_m_55_ ILAB0102_ILE1305_m_79_ ILAB0102_ILE1305_m_95_ ILAB0102_ILE1305_m_99_ ILAB0102_ILE1305_m_71_ ILAB0102_ILE1305_m_83_ ILAB0102_ILE1305_nm_75_ ILAB0102_ILE1305_nm_77_ ILAB0102_ILE1305_nm_97_ ILAB0102_ILE1305_nm_34_ ILAB0102_ILE1305_nm_101_ ILAB0102_ILE1305_nm_55_ ILAB0102_ILE1305_nm_79_ ILAB0102_ILE1305_nm_95_ ILAB0102_ILE1305_nm_71_ LE_4p0
x.ILAB0102.ILE1305.Iho1 ILAB0102_ILE1305_net1842 ILAB0102_ILE1305_net2685 ILAB0102_net15907 sw_b_v2_inv_UCCLAB
x.ILAB0102.ILE1305.Ivo3 ILAB0102_ILE1305_net1869 ILAB0102_ILE1305_net2670 ILAB0102_net25065 sw_b_v2_inv_UCCLAB
x.ILAB0102.ILE1305.Is7 ILAB0102_ILE1305_m_7_ ILAB0102_ILE1305_net2670 ILAB0102_net15932 ILAB0102_ILE1305_net2656 ILAB0102_ILE1305_nm_7_ switch2
x.ILAB0102.ILE1305.Is127 ILAB0102_ILE1305_m_127_ ILAB0102_ILE1305_net2685 ILAB0102_net20452 ILAB0102_ILE1305_net2656 ILAB0102_ILE1305_nm_127_ switch2
x.ILAB0102.ILE1305.Is131 ILAB0102_ILE1305_B ILAB0102_ILE1305_m_131_ ILAB0102_net25069 switch
x.ILAB0102.ILE1305.Is13 ILAB0102_ILE1305_C ILAB0102_ILE1305_m_13_ ILAB0102_net26527 switch
x.ILAB0102.ILE1305.Is25 ILAB0102_ILE1305_A ILAB0102_ILE1305_m_25_ ILAB0102_net16628 switch
x.ILAB0102.ILE1205.Ivi6 ILAB0102_ILE1205_net1863 ILAB0102_ILE1205_net1862 ILAB0102_net15934 sw_b_v2_inv_UCCLAB
x.ILAB0102.ILE1205.Is111 ILAB0102_ILE1205_m_111_ ILAB0102_ILE1205_net1862 ILAB0102_net25067 ILAB0102_ILE1205_net2656 ILAB0102_ILE1205_nm_111_ switch2
x.ILAB0102.ILE1205.Is132 ILAB0102_ILE1205_C ILAB0102_ILE1205_m_132_ ILAB0102_net15979 switch
x.ILAB0102.ILE1205.Is29 ILAB0102_ILE1205_C ILAB0102_ILE1205_m_29_ ILAB0102_net15593 switch
x.ILAB0102.ILE0706.Is43 ILAB0102_ILE0706_B ILAB0102_ILE0706_m_43_ ILAB0102_ILE0706_net2743 switch_ds
x.ILAB0102.ILE0706.Is44 ILAB0102_ILE0706_C ILAB0102_ILE0706_m_45_ ILAB0102_ILE0706_net2746 switch_ds
x.ILAB0102.ILE0706.Is41 ILAB0102_ILE0706_A ILAB0102_ILE0706_m_41_ ILAB0102_ILE0706_net2749 switch_ds
x.ILAB0102.ILE0706.Is125 ILAB0102_ILE0706_C ILAB0102_ILE0706_m_125_ ILAB0102_net18229 switch_sd
x.ILAB0102.ILE0706.Is17 ILAB0102_ILE0706_A ILAB0102_ILE0706_m_17_ ILAB0102_net15817 switch_sd
x.ILAB0102.ILE0706.ILE1 ILAB0102_ILE0706_net2749 ILAB0102_ILE0706_net2743 ILAB0102_ILE0706_net2746 ILAB0102_ILE0706_net2656 ILAB0102_ILE0706_net0541 ILAB0102_ILE0706_m_109_ ILAB0102_ILE0706_m_107_ ILAB0102_ILE0706_m_105_ ILAB0102_ILE0706_m_85_ ILAB0102_ILE0706_m_55_ ILAB0102_ILE0706_m_79_ ILAB0102_ILE0706_m_95_ ILAB0102_ILE0706_m_99_ ILAB0102_ILE0706_m_71_ ILAB0102_ILE0706_m_83_ ILAB0102_ILE0706_nm_75_ ILAB0102_ILE0706_nm_77_ ILAB0102_ILE0706_nm_97_ ILAB0102_ILE0706_nm_34_ ILAB0102_ILE0706_nm_101_ ILAB0102_ILE0706_nm_55_ ILAB0102_ILE0706_nm_79_ ILAB0102_ILE0706_nm_95_ ILAB0102_ILE0706_nm_71_ LE_4p0
x.ILAB0102.ILE0706.Ivi7 ILAB0102_ILE0706_net1860 ILAB0102_ILE0706_net1859 ILAB0102_net16069 sw_b_v2_inv_UCCLAB
x.ILAB0102.ILE0706.Is119 ILAB0102_ILE0706_m_119_ ILAB0102_ILE0706_net1859 ILAB0102_net17599 ILAB0102_ILE0706_net2656 ILAB0102_ILE0706_nm_119_ switch2
x.ILAB0102.ILE0706.Is131 ILAB0102_ILE0706_B ILAB0102_ILE0706_m_131_ ILAB0102_net18634 switch